@<TRIPOS>MOLECULE
185L.lig
   16    17     1     0     0
SMALL
bcc


@<TRIPOS>ATOM
      1 N1         28.5560    7.3580    3.1830 N.pl3     1 LIG     -0.196400
      2 H1         29.2080    8.1280    3.1610 H         1 LIG      0.297700
      3 C1         28.3670    6.5900    2.0680 C.2       1 LIG     -0.109100
      4 H2         28.8970    6.8210    1.1590 H         1 LIG      0.163000
      5 C2         27.4810    5.6010    2.3230 C.2       1 LIG     -0.187200
      6 H3         27.2360    4.8860    1.5560 H         1 LIG      0.156000
      7 C3         26.1410    5.1180    4.4680 C.ar      1 LIG     -0.082000
      8 H4         25.5440    4.3040    4.0920 H         1 LIG      0.133000
      9 C4         26.0020    5.5250    5.7650 C.ar      1 LIG     -0.159000
     10 H5         25.3180    5.0120    6.4200 H         1 LIG      0.128000
     11 C5         26.7180    6.5870    6.2770 C.ar      1 LIG     -0.113000
     12 H6         26.5900    6.8760    7.3060 H         1 LIG      0.128000
     13 C6         27.5970    7.2920    5.5050 C.ar      1 LIG     -0.146000
     14 H7         28.1340    8.1260    5.9250 H         1 LIG      0.130000
     15 C7         27.7470    6.8770    4.1890 C.ar      1 LIG     -0.047200
     16 C8         27.0540    5.7730    3.6750 C.ar      1 LIG     -0.095800
@<TRIPOS>BOND
     1    2    1 1   
     2    3    1 1   
     3    4    3 1   
     4    5    3 2   
     5    6    5 1   
     6    8    7 1   
     7    9    7 ar  
     8   10    9 1   
     9   11    9 ar  
    10   12   11 1   
    11   13   11 ar  
    12   14   13 1   
    13   15    1 1   
    14   15   13 ar  
    15   16    5 1   
    16   16    7 ar  
    17   16   15 ar  
@<TRIPOS>SUBSTRUCTURE
     1 LIG         1 TEMP              0 ****  ****    0 ROOT
