@<TRIPOS>MOLECULE
182L.lig
   15    16     1     0     0
SMALL
bcc


@<TRIPOS>ATOM
      1 O1         27.6840    6.1560    2.3190 O.3       1 LIG     -0.204200
      2 C1         28.4310    7.3150    2.4070 C.2       1 LIG     -0.014900
      3 H1         29.0400    7.6270    1.5760 H         1 LIG      0.189000
      4 C2         28.2590    7.9040    3.6080 C.2       1 LIG     -0.177200
      5 H2         28.7250    8.8530    3.8140 H         1 LIG      0.165000
      6 C3         27.4200    7.0120    4.3480 C.ar      1 LIG     -0.106800
      7 C4         26.9090    7.0380    5.6140 C.ar      1 LIG     -0.083000
      8 H3         27.1770    7.8350    6.2870 H         1 LIG      0.138000
      9 C5         26.0640    6.0480    6.0060 C.ar      1 LIG     -0.149000
     10 H4         25.6550    6.0520    7.0020 H         1 LIG      0.133000
     11 C6         25.7060    5.0210    5.1570 C.ar      1 LIG     -0.113000
     12 H5         25.0280    4.2550    5.4940 H         1 LIG      0.135000
     13 C7         26.1910    4.9500    3.8930 C.ar      1 LIG     -0.121000
     14 H6         25.8830    4.1490    3.2420 H         1 LIG      0.150000
     15 C8         27.0710    5.9320    3.5060 C.ar      1 LIG      0.058100
@<TRIPOS>BOND
     1    2    1 1   
     2    3    2 1   
     3    4    2 2   
     4    5    4 1   
     5    6    4 1   
     6    7    6 ar  
     7    8    7 1   
     8    9    7 ar  
     9   10    9 1   
    10   11    9 ar  
    11   12   11 1   
    12   13   11 ar  
    13   14   13 1   
    14   15    1 1   
    15   15    6 ar  
    16   15   13 ar  
@<TRIPOS>SUBSTRUCTURE
     1 LIG         1 TEMP              0 ****  ****    0 ROOT
