@<TRIPOS>MOLECULE
184L.lig
   24    24     1     0     0
SMALL
bcc


@<TRIPOS>ATOM
      1 C1         27.3570    6.7720    3.3880 C.ar      1 LIG     -0.075300
      2 C2         27.3210    7.2930    4.6580 C.ar      1 LIG     -0.128000
      3 H1         27.8660    8.1930    4.8860 H         1 LIG      0.131000
      4 C3         26.5680    6.6500    5.6700 C.ar      1 LIG     -0.129000
      5 H2         26.5730    7.0390    6.6740 H         1 LIG      0.130000
      6 C4         25.8310    5.5260    5.3590 C.ar      1 LIG     -0.134000
      7 H3         25.2110    5.0640    6.1090 H         1 LIG      0.130000
      8 C5         25.8870    4.9870    4.0770 C.ar      1 LIG     -0.128000
      9 H4         25.3330    4.0930    3.8440 H         1 LIG      0.130000
     10 C6         26.6640    5.6070    3.0880 C.ar      1 LIG     -0.129000
     11 H5         26.7250    5.1840    2.0990 H         1 LIG      0.131000
     12 C7         28.1350    7.4950    2.3350 C.3       1 LIG     -0.036100
     13 H6         28.8630    8.1120    2.7950 H         1 LIG      0.047700
     14 H7         28.6160    6.7920    1.7060 H         1 LIG      0.048700
     15 C8         27.1650    8.3380    1.5330 C.3       1 LIG     -0.063700
     16 H8         26.3180    7.7560    1.2790 H         1 LIG      0.050700
     17 C9         27.8680    8.7990    0.2910 C.3       1 LIG     -0.091100
     18 H9         28.1750    7.9570   -0.2740 H         1 LIG      0.032700
     19 H10        28.7170    9.3730    0.5580 H         1 LIG      0.033700
     20 H11        27.2090    9.3920   -0.2880 H         1 LIG      0.035700
     21 C10        26.6640    9.5080    2.3390 C.3       1 LIG     -0.091100
     22 H12        27.4830   10.1160    2.6250 H         1 LIG      0.030700
     23 H13        26.1680    9.1540    3.2050 H         1 LIG      0.041700
     24 H14        25.9900   10.0770    1.7530 H         1 LIG      0.033700
@<TRIPOS>BOND
     1    2    1 ar  
     2    3    2 1   
     3    4    2 ar  
     4    5    4 1   
     5    6    4 ar  
     6    7    6 1   
     7    8    6 ar  
     8    9    8 1   
     9   10    1 ar  
    10   10    8 ar  
    11   11   10 1   
    12   12    1 1   
    13   13   12 1   
    14   14   12 1   
    15   15   12 1   
    16   16   15 1   
    17   17   15 1   
    18   18   17 1   
    19   19   17 1   
    20   20   17 1   
    21   21   15 1   
    22   22   21 1   
    23   23   21 1   
    24   24   21 1   
@<TRIPOS>SUBSTRUCTURE
     1 LIG         1 TEMP              0 ****  ****    0 ROOT
