@<TRIPOS>MOLECULE
187L.lig
   18    18     1     0     0
SMALL
bcc


@<TRIPOS>ATOM
      1 C1         26.6450    6.1410    4.6680 C.ar      1 LIG     -0.082300
      2 C2         26.7810    5.6710    3.4440 C.ar      1 LIG     -0.127000
      3 H1         26.5090    4.6520    3.2250 H         1 LIG      0.130000
      4 C3         27.2700    6.4720    2.4350 C.ar      1 LIG     -0.127000
      5 H2         27.4060    6.0690    1.4460 H         1 LIG      0.130000
      6 C4         27.5830    7.7750    2.6860 C.ar      1 LIG     -0.082300
      7 C5         27.4420    8.2660    3.9390 C.ar      1 LIG     -0.128000
      8 H3         27.6890    9.2940    4.1460 H         1 LIG      0.130000
      9 C6         26.9790    7.4340    4.9470 C.ar      1 LIG     -0.128000
     10 H4         26.8830    7.8100    5.9520 H         1 LIG      0.130000
     11 C7         26.1370    5.2260    5.7700 C.3       1 LIG     -0.052800
     12 H5         26.8670    5.1540    6.5340 H         1 LIG      0.044700
     13 H6         25.2420    5.6230    6.1730 H         1 LIG      0.044700
     14 H7         25.9480    4.2630    5.3710 H         1 LIG      0.040700
     15 C8         28.1020    8.6640    1.5520 C.3       1 LIG     -0.052800
     16 H8         29.0680    9.0210    1.7980 H         1 LIG      0.044700
     17 H9         27.4460    9.4840    1.4180 H         1 LIG      0.044700
     18 H10        28.1510    8.1010    0.6560 H         1 LIG      0.040700
@<TRIPOS>BOND
     1    2    1 ar  
     2    3    2 1   
     3    4    2 ar  
     4    5    4 1   
     5    6    4 ar  
     6    7    6 ar  
     7    8    7 1   
     8    9    1 ar  
     9    9    7 ar  
    10   10    9 1   
    11   11    1 1   
    12   12   11 1   
    13   13   11 1   
    14   14   11 1   
    15   15    6 1   
    16   16   15 1   
    17   17   15 1   
    18   18   15 1   
@<TRIPOS>SUBSTRUCTURE
     1 LIG         1 TEMP              0 ****  ****    0 ROOT
