@<TRIPOS>MOLECULE
186L.lig
   24    24     1     0     0
SMALL
bcc


@<TRIPOS>ATOM
      1 C1         27.5330    7.0610    3.9520 C.ar      1 LIG     -0.075300
      2 C2         26.9940    7.0690    5.2570 C.ar      1 LIG     -0.129000
      3 H1         27.2130    7.8850    5.9250 H         1 LIG      0.130000
      4 C3         26.1900    6.0370    5.6740 C.ar      1 LIG     -0.128000
      5 H2         25.7910    6.0360    6.6740 H         1 LIG      0.130000
      6 C4         25.8970    5.0000    4.8010 C.ar      1 LIG     -0.134000
      7 H3         25.2390    4.2050    5.1100 H         1 LIG      0.130000
      8 C5         26.4420    4.9870    3.5500 C.ar      1 LIG     -0.129000
      9 H4         26.2400    4.1660    2.8830 H         1 LIG      0.130000
     10 C6         27.2550    6.0160    3.1200 C.ar      1 LIG     -0.129000
     11 H5         27.6700    5.9940    2.1270 H         1 LIG      0.131000
     12 C7         28.3470    8.2100    3.4230 C.3       1 LIG     -0.038100
     13 H6         29.0500    8.5110    4.1550 H         1 LIG      0.046700
     14 H7         28.8580    7.9070    2.5470 H         1 LIG      0.048700
     15 C8         27.4170    9.3750    3.0960 C.3       1 LIG     -0.073400
     16 H8         26.7190    9.5010    3.8820 H         1 LIG      0.042700
     17 H9         27.9870   10.2610    2.9840 H         1 LIG      0.039700
     18 C9         26.6450    9.1420    1.8090 C.3       1 LIG     -0.082400
     19 H10        26.1240    8.2220    1.8710 H         1 LIG      0.047700
     20 H11        25.9530    9.9310    1.6650 H         1 LIG      0.038700
     21 C10        27.5330    9.0850    0.6020 C.3       1 LIG     -0.092100
     22 H12        28.2270    8.2930    0.7110 H         1 LIG      0.030700
     23 H13        28.0560   10.0010    0.5050 H         1 LIG      0.031700
     24 H14        26.9440    8.9210   -0.2630 H         1 LIG      0.032700
@<TRIPOS>BOND
     1    2    1 ar  
     2    3    2 1   
     3    4    2 ar  
     4    5    4 1   
     5    6    4 ar  
     6    7    6 1   
     7    8    6 ar  
     8    9    8 1   
     9   10    1 ar  
    10   10    8 ar  
    11   11   10 1   
    12   12    1 1   
    13   13   12 1   
    14   14   12 1   
    15   15   12 1   
    16   16   15 1   
    17   17   15 1   
    18   18   15 1   
    19   19   18 1   
    20   20   18 1   
    21   21   18 1   
    22   22   21 1   
    23   23   21 1   
    24   24   21 1   
@<TRIPOS>SUBSTRUCTURE
     1 LIG         1 TEMP              0 ****  ****    0 ROOT
