@<TRIPOS>MOLECULE
183L.lig
   17    18     1     0     0
SMALL
bcc


@<TRIPOS>ATOM
      1 C1         27.8600    8.1280    4.2770 C.2       1 LIG     -0.117200
      2 H1         28.1090    8.9960    4.8630 H         1 LIG      0.144000
      3 C2         28.3280    8.0190    2.8980 C.2       1 LIG     -0.173200
      4 H2         28.9420    8.7960    2.4750 H         1 LIG      0.142000
      5 C3         27.8090    6.7540    2.3390 C.3       1 LIG     -0.019900
      6 H3         27.2120    6.9620    1.4890 H         1 LIG      0.074700
      7 H4         28.6200    6.1330    2.0580 H         1 LIG      0.074700
      8 C4         26.3310    4.9670    3.4680 C.ar      1 LIG     -0.115000
      9 H5         26.2880    4.3150    2.6120 H         1 LIG      0.132000
     10 C5         25.6900    4.6140    4.6350 C.ar      1 LIG     -0.129000
     11 H6         25.1140    3.7050    4.6790 H         1 LIG      0.130000
     12 C6         25.7550    5.3850    5.7660 C.ar      1 LIG     -0.133000
     13 H7         25.2690    5.0580    6.6700 H         1 LIG      0.130000
     14 C7         26.4400    6.5710    5.7400 C.ar      1 LIG     -0.107000
     15 H8         26.4610    7.2000    6.6140 H         1 LIG      0.134000
     16 C8         27.0950    6.9300    4.5690 C.ar      1 LIG     -0.071800
     17 C9         27.0070    6.1430    3.4330 C.ar      1 LIG     -0.094300
@<TRIPOS>BOND
     1    2    1 1   
     2    3    1 2   
     3    4    3 1   
     4    5    3 1   
     5    6    5 1   
     6    7    5 1   
     7    9    8 1   
     8   10    8 ar  
     9   11   10 1   
    10   12   10 ar  
    11   13   12 1   
    12   14   12 ar  
    13   15   14 1   
    14   16    1 1   
    15   16   14 ar  
    16   17    5 1   
    17   17    8 ar  
    18   17   16 ar  
@<TRIPOS>SUBSTRUCTURE
     1 LIG         1 TEMP              0 ****  ****    0 ROOT
